obj02
  PyMOL3.1          3D                             0

 28 31  0  0  0  0  0  0  0  0999 V2000
  124.1729  137.4433  116.9315 C   0  0  0  0  0  0  0  0  0  0  0  0
  129.5370  135.8670  119.5820 C   0  0  0  0  0  0  0  0  0  0  0  0
  128.1160  139.8620  119.8000 N   0  0  0  0  0  0  0  0  0  0  0  0
  128.2640  136.3760  118.9410 C   0  0  0  0  0  0  0  0  0  0  0  0
  126.3370  137.8520  119.3580 N   0  0  0  0  0  0  0  0  0  0  0  0
  127.6590  137.4540  119.7760 C   0  0  0  0  0  0  0  0  0  0  0  0
  126.0040  139.5980  113.8720 N   0  0  0  0  0  0  0  0  0  0  0  0
  128.6120  138.6190  119.7780 C   0  0  0  0  0  0  0  0  0  0  0  0
  122.8420  136.9730  119.9540 N   0  0  0  0  0  0  0  0  0  0  0  0
  129.9770  138.3630  119.7590 C   0  0  0  0  0  0  0  0  0  0  0  0
  123.9800  138.8260  120.3860 N   0  0  0  0  0  0  0  0  0  0  0  0
  130.5520  136.9690  119.7270 C   0  0  0  0  0  0  0  0  0  0  0  0
  130.8310  139.4590  119.7630 C   0  0  0  0  0  0  0  0  0  0  0  0
  130.3260  140.7370  119.7730 C   0  0  0  0  0  0  0  0  0  0  0  0
  128.9590  140.8840  119.7900 C   0  0  0  0  0  0  0  0  0  0  0  0
  126.2820  138.2870  117.9550 C   0  0  0  0  0  0  0  0  0  0  0  0
  125.7110  137.3760  116.8940 C   0  0  0  0  0  0  0  0  0  0  0  0
  126.2040  137.8180  115.5310 C   0  0  0  0  0  0  0  0  0  0  0  0
  125.2890  138.7990  114.8540 C   0  0  0  0  0  0  0  0  0  0  0  0
  125.3090  136.8560  119.6390 C   0  0  0  0  0  0  0  0  0  0  0  0
  124.0320  137.5410  119.9890 C   0  0  0  0  0  0  0  0  0  0  0  0
  121.9540  137.9710  120.3370 C   0  0  0  0  0  0  0  0  0  0  0  0
  120.5710  137.9510  120.4660 C   0  0  0  0  0  0  0  0  0  0  0  0
  119.9410  139.1070  120.8450 C   0  0  0  0  0  0  0  0  0  0  0  0
  120.6580  140.2610  121.1080 C   0  0  0  0  0  0  0  0  0  0  0  0
  122.0270  140.2950  121.0030 C   0  0  0  0  0  0  0  0  0  0  0  0
  122.6590  139.1330  120.6080 C   0  0  0  0  0  0  0  0  0  0  0  0
  123.6195  136.1605  117.5794 C   0  0  0  0  0  0  0  0  0  0  0  0
  1 28  1  0  0  0  0
  2  4  1  0  0  0  0
  4  6  1  0  0  0  0
  5  6  1  0  0  0  0
  3  8  2  0  0  0  0
  6  8  1  0  0  0  0
  8 10  1  0  0  0  0
  2 12  1  0  0  0  0
 10 12  1  0  0  0  0
 10 13  2  0  0  0  0
 13 14  1  0  0  0  0
  3 15  1  0  0  0  0
 14 15  2  0  0  0  0
  5 16  1  0  0  0  0
  1 17  1  0  0  0  0
 16 17  1  0  0  0  0
 17 18  1  0  0  0  0
  7 19  1  0  0  0  0
 18 19  1  0  0  0  0
  5 20  1  0  0  0  0
  9 21  2  0  0  0  0
 11 21  1  0  0  0  0
 20 21  1  0  0  0  0
  9 22  1  0  0  0  0
 22 23  2  0  0  0  0
 23 24  1  0  0  0  0
 24 25  2  0  0  0  0
 25 26  1  0  0  0  0
 11 27  1  0  0  0  0
 22 27  1  0  0  0  0
 26 27  2  0  0  0  0
M  END
$$$$
